/*--------------------------------*- C++ -*----------------------------------*\
| =========                 |                                                 |
| \\      /  F ield         | OpenFOAM: The Open Source CFD Toolbox           |
|  \\    /   O peration     | Version:  v2112                                 |
|   \\  /    A nd           | Website:  www.openfoam.com                      |
|    \\/     M anipulation  |                                                 |
\*---------------------------------------------------------------------------*/
FoamFile
{
    version     2.0;
    format      ascii;
    class       dictionary;
    object      thermophysicalProperties.liquid;
}
// * * * * * * * * * * * * * * * * * * * * * * * * * * * * * * * * * * * * * //

thermoType
{
    type            heRhoThermo;
    mixture         pureMixture;
    transport       const;
    thermo          hConst;
    equationOfState rhoConst;
    specie          specie;
    energy          sensibleEnthalpy;
}

dpdt no;

mixture
{
    specie
    {
        molWeight       18.0153;
    }
    equationOfState
    {
        rho         1000;
    }
    thermodynamics
    {
        Hf          0;
        Cp          4195;
        Tref        373.55;
        Href        417500;
    }
    transport
    {
        mu          959e-6;
        Pr          6.62;
    }
}


// ************************************************************************* //
